5

C    0.00000000            0.00000000           -0.14126967
H    0.00000000            0.93077453           -0.68060909
H    0.00000000           -0.93077453           -0.68060909
N    0.61415302            0.00000000            1.20220070
N   -0.61415302            0.00000000            1.20220070i
